/*--------------------------------*- C++ -*----------------------------------*\
  =========                 |
  \\      /  F ield         | OpenFOAM: The Open Source CFD Toolbox
   \\    /   O peration     | Website:  https://openfoam.org
    \\  /    A nd           | Version:  10
     \\/     M anipulation  |
\*---------------------------------------------------------------------------*/
FoamFile
{
    format      ascii;
    class       polyBoundaryMesh;
    location    "constant/polyMesh";
    object      boundary;
}
// * * * * * * * * * * * * * * * * * * * * * * * * * * * * * * * * * * * * * //

7
(
    top
    {
        type            wall;
        inGroups        List<word> 1(wall);
        nFaces          0;
        startFace       90906;
    }
    bottom
    {
        type            wall;
        inGroups        List<word> 1(wall);
        nFaces          828;
        startFace       90906;
    }
    inner_wall
    {
        type            wall;
        inGroups        List<word> 1(wall);
        nFaces          3072;
        startFace       91734;
    }
    outer_wall
    {
        type            wall;
        inGroups        List<word> 1(wall);
        nFaces          3240;
        startFace       94806;
    }
    procBoundary1to0
    {
        type            processor;
        inGroups        List<word> 1(processor);
        nFaces          238;
        startFace       98046;
        matchTolerance  0.0001;
        myProcNo        1;
        neighbProcNo    0;
    }
    procBoundary1to3
    {
        type            processor;
        inGroups        List<word> 1(processor);
        nFaces          238;
        startFace       98284;
        matchTolerance  0.0001;
        myProcNo        1;
        neighbProcNo    3;
    }
    procBoundary1to5
    {
        type            processor;
        inGroups        List<word> 1(processor);
        nFaces          1354;
        startFace       98522;
        matchTolerance  0.0001;
        myProcNo        1;
        neighbProcNo    5;
    }
)

// ************************************************************************* //
